; Carbamazepine (CBZ) MOL2 Placeholder
; PubChem CID: 2554
; Molecular Formula: C15H12N2O
; Molecular Weight: 236.274 g/mol
; SMILES: C1=CC2=CC=CC=C2N3C(=O)N=CC3=C1
;
; NOTE: This is a placeholder file.
; Generate the actual MOL2 file using one of:
;
;   Option 1 - PubChem 3D:
;     wget "https://pubchem.ncbi.nlm.nih.gov/rest/pug/compound/CID/2554/record/SDF/?record_type=3d&response_type=save" \
;          -O carbamazepine.sdf
;     obabel carbamazepine.sdf -O carbamazepine.mol2
;
;   Option 2 - RDKit:
;     python -c "
;     from rdkit import Chem
;     from rdkit.Chem import AllChem
;     mol = Chem.MolFromSmiles('C1=CC2=CC=CC=C2N3C(=O)N=CC3=C1')
;     mol = Chem.AddHs(mol)
;     AllChem.EmbedMolecule(mol, AllChem.ETKDGv3())
;     AllChem.MMFFOptimizeMolecule(mol)
;     Chem.MolToMolFile(mol, 'carbamazepine_3d.mol')
;     "
;
;   Option 3 - antechamber (AmberTools) for GAFF2 parameters:
;     antechamber -i carbamazepine.sdf -fi sdf \
;                 -o carbamazepine.mol2 -fo mol2 \
;                 -c bcc -s 2 -rn CBZ -nc 0
;     parmchk2 -i carbamazepine.mol2 -f mol2 -o carbamazepine.frcmod
;
@<TRIPOS>MOLECULE
carbamazepine
 29 30 0 0 0
SMALL
GASTEIGER

@<TRIPOS>ATOM
; (Coordinates to be filled in after 3D structure generation)
; Format: atom_id atom_name x y z atom_type subst_id subst_name charge
      1 C1          0.0000    0.0000    0.0000 C.ar       1 CBZ      -0.0634
      2 C2          1.3900    0.0000    0.0000 C.ar       1 CBZ      -0.0634
      3 C3          2.0851    1.2025    0.0000 C.ar       1 CBZ      -0.0634
      4 C4          1.3901    2.4049    0.0000 C.ar       1 CBZ      -0.0634
      5 C5          0.0001    2.4049    0.0000 C.ar       1 CBZ      -0.0634
      6 C6         -0.6950    1.2025    0.0000 C.ar       1 CBZ      -0.0634
      7 C7         -0.6950   -1.2025    0.0000 C.ar       1 CBZ       0.0000
      8 C8          2.7802   -1.2025    0.0000 C.ar       1 CBZ       0.0000
      9 C9          2.7802    3.6074    0.0000 C.ar       1 CBZ      -0.0634
     10 C10         2.0851    4.8099    0.0000 C.ar       1 CBZ      -0.0634
     11 C11         0.6951    4.8099    0.0000 C.ar       1 CBZ      -0.0634
     12 C12        -0.0000    3.6074    0.0000 C.ar       1 CBZ      -0.0634
     13 C13         1.3900   -1.2025    0.0000 C.2        1 CBZ       0.0000
     14 N14         0.6950    1.2025    0.0000 N.am       1 CBZ      -0.3237
     15 C15         0.0000    2.4049    0.0000 C.2        1 CBZ       0.6013
     16 O16        -1.3900    2.4049    0.0000 O.2        1 CBZ      -0.5621
     17 N17         1.3900    2.4049    0.0000 N.am       1 CBZ      -0.3237
     18 C18         2.0850    1.2025    0.0000 C.2        1 CBZ       0.0000
@<TRIPOS>BOND
; Bond data placeholder (auto-generated by antechamber)
@<TRIPOS>SUBSTRUCTURE
     1 CBZ         1 TEMP              0 ****  ****    0 ROOT
